Circuit: * C:\Users\mcconncm\Documents\MATLAB\Lab10\OverallCircuit.asc

Early termination of direct N-R iteration.
Direct Newton iteration failed to find .op point.  (Use ".option noopiter" to skip.)
Starting Gmin stepping
Increasing initial diagonal Gmin to 100
Increasing initial diagonal Gmin to 1000
Gmin = 1000
vernier = 0.5
vernier = 0.25
vernier = 0.125
vernier = 0.0625
Gmin = 969.467
vernier = 0.03125
vernier = 0.015625
vernier = 0.0078125
vernier = 0.00390625
Gmin = 972.232
vernier = 0.00195312
vernier = 0.000976562
vernier = 0.000488281
Gmin = 0
Gmin stepping failed

Starting source stepping with srcstepmethod=0
Source Step = 3.0303%
Source Step = 33.3333%
Source Step = 63.6364%
Source Step = 93.9394%
Source stepping succeeded in finding the operating point.


Date: Wed Nov  1 23:45:26 2023
Total elapsed time: 0.143 seconds.

tnom = 27
temp = 27
method = trap
totiter = 1833
traniter = 0
tranpoints = 0
accept = 0
rejected = 0
matrix size = 101
fillins = 343
solver = Normal
Avg thread counts: 5.8/0.0/24.0/5.6
Matrix Compiler1:    1609 opcodes
Matrix Compiler2: 14.55 KB object code size  1.1/1.1/[0.5]

