Circuit: * Wey Makeup Calum McConnell

Model "cmosn": Oxide thickness thinner than recommended for a level 1 MOSFET.
Instance "mx": Length shorter than recommended for a level 1 MOSFET.
Direct Newton iteration for .op point succeeded.

Date: Mon Nov  6 01:17:05 2023
Total elapsed time: 0.185 seconds.

tnom = 27
temp = 25
method = modified trap
totiter = 1992
traniter = 1972
tranpoints = 875
accept = 739
rejected = 136
matrix size = 11
fillins = 0
solver = Normal
Avg thread counts: 5.5/10.8/11.0/5.5
Matrix Compiler1: 432 bytes object code size  0.1/0.1/[0.1]
Matrix Compiler2:      62 opcodes  0.1/[0.1]/0.1

